Circuit: *nand

Fatal Error: Multiple instances of "Plot"
