Circuit: *LAB

Fatal Error: Run: Missing node(s).
