Circuit: *and

Fatal Error: Multiple instances of "Plot"
