Circuit: *Compuertas

Fatal Error: Multiple instances of "Plot"
