Circuit: * D:\Estudio\OneDrive - Universidad de Antioquia\Estudio\Materias\S5\Digitales I\Laboratorio\P1\Final_Codes\Draft2.asc

.OP point found by inspection.

Date: Tue Sep 26 00:31:52 2023
Total elapsed time: 0.079 seconds.

tnom = 27
temp = 27
method = modified trap
totiter = 2206
traniter = 2206
tranpoints = 1083
accept = 1076
rejected = 7
matrix size = 3
fillins = 0
solver = Normal
Matrix Compiler1:       3 opcodes  0.0/[0.0]/0.0
Matrix Compiler2: 175 bytes object code size  0.0/0.1/[0.0]

