Circuit: *Subckt Full Adder

Fatal Error: Multiple instances of "Plot"
