Circuit: *Red transistores

Fatal Error: Run: Missing node(s).
